LAMMPS (3 Mar 2020)
###
# Reference paper:
# K. Kremer and G. S. Grest
# Dynamics of entangled linear polymer melts: A molecular-dynamics simulation
# J Chem Phys 92, 5057 (1990)
###

###
# Box and units  (use LJ units and periodic boundaries)
###

units lj

atom_style angle #with stiffness

boundary        p p p

###
# Pair interactions require lists of neighbours to be calculated
###
neighbor 1.9 bin
neigh_modify every 1 delay 1 check yes

### Generate RESTART file, SPECIAL format, not a .txt file ###
### Useful if simulation crashes ###
restart 1000000 polymer.restart
#############################

#processors 2 1 1

### READ "start" data file ###
read_data lammps_input
  orthogonal box = (-50 -50 -50) to (50 50 50)
  reading atoms ...
  400 atoms
  reading velocities ...
  400 velocities
  scanning bonds ...
  scanning angles ...
  reading bonds ...
  398 bonds
  reading angles ...
  396 angles
######################

### READ "REstart" data file ###
#read_restart DNAunzipping.restart
######################

### reset timestep ###
reset_timestep 0
######################

###
# Define groups (atom type 1 is group 'all')
###
#group all type *

###
# Dump configs - "simple dumpings"
###

###
# Dump configs + box coords
###
#dump   1   all   custom   10000   DNAunzipping.dump.*  id  x y z  ix iy iz
#dump_modify   1   format "%d %.5f %.5f %.5f %d %d %d"
dump   id all atom 1000 dump.DNAunzipping

###################################################################
# Stiffness term
#
# E = K * (1+cos(theta)), K>0
#
angle_style   cosine
angle_coeff   1 20.0
###################################################################

###################################################################
# Pair interaction between non-bonded atoms
#
#  soft potential, for PUSHING apart overlapping atoms
#  potential E=A*(1 + cos(pi*r/r_c))
#
#  1.12246 = 2^(1/6) is the cut-off r_c

pair_style     soft 1.12246152962189

#
#  pair_coeff for soft, specify 3:
#    * atom type interacting with
#    * atom type
#    * A
#

pair_coeff * * 100.0 1.12246152962189

###################################################################
# Pair interaction between bonded atoms
#
# Harmonic potential:
#
#  E= K * (R-R0)^2
#

bond_style   harmonic

#
# For style harmonic, specify:
#   * bond type
#   * K (energy/distance^2)
#   * R0 (distance)
#

bond_coeff   1   60.0   1.1

###################################################

###
# Set up fixes
###

fix 1 all   nve   ###NVE ensemble
fix 2 all   langevin   1.0 1.0   1.0   15   ###Langevin integrator Tstart Tstop 1/friction rndseed

##### Sample thermodynamic info  (temperature, energy, pressure, etc.) #####
thermo 10000
thermo_style   custom   step  temp  epair  emol  press pxx pyy pzz  vol
############################################################################

###
# set timestep of integrator
###
timestep 0.01 #0.012

###
# run integration for a number of steps
###
run 1000
  update every 1 steps, delay 1 steps, check yes
Step Temp E_pair E_mol Press Pxx Pyy Pzz Volume
0            0    176.82657    20.864746  0.058863411  0.071728753  0.068804243  0.036057238      1000000
Loop time of 0.0831269 on 1 procs for 1000 steps with 400 atoms

###################################################################
# Pair interaction between non-bonded atoms
#
#  Lennard-Jones 12-6 potential with cutoff:
#  potential E=4epsilon[ (sigma/r)^12 - (sigma/r)^6]  for r<r_cut
#
#  1.12246 = 2^(1/6) is the minimum of the potential

pair_style      lj/cut 1.12246152962189

#
#  pair_modify shift yes adds a constant to the potential such
#  that E(r_cut)=0. Forces remains unchanged.
#

pair_modify     shift yes

#
#  pair_coeff for lj/cut, specify 4:
#    * atom type interacting with
#    * atom type
#    * epsilon (energy units)
#    * sigma (distance units)
#

pair_coeff      * * 1.0 1.0 1.12246152962189

include pair.unzipping.equilibration
 pair_coeff            1           1   3.0000000000000000        1.0000000000000000        2.5000000000000000
 pair_coeff            2           2   3.0000000000000000        1.0000000000000000        2.5000000000000000
 pair_coeff            3           3   3.0000000000000000        1.0000000000000000        2.5000000000000000
 pair_coeff            4           4   3.0000000000000000        1.0000000000000000        2.5000000000000000
 pair_coeff            5           5   3.0000000000000000        1.0000000000000000        2.5000000000000000
 pair_coeff            6           6   3.0000000000000000        1.0000000000000000        2.5000000000000000
 pair_coeff            7           7   3.0000000000000000        1.0000000000000000        2.5000000000000000
 pair_coeff            8           8   3.0000000000000000        1.0000000000000000        2.5000000000000000
 pair_coeff            9           9   3.0000000000000000        1.0000000000000000        2.5000000000000000
 pair_coeff           10          10   3.0000000000000000        1.0000000000000000        2.5000000000000000
 pair_coeff           11          11   3.0000000000000000        1.0000000000000000        2.5000000000000000
 pair_coeff           12          12   3.0000000000000000        1.0000000000000000        2.5000000000000000
 pair_coeff           13          13   3.0000000000000000        1.0000000000000000        2.5000000000000000
 pair_coeff           14          14   3.0000000000000000        1.0000000000000000        2.5000000000000000
 pair_coeff           15          15   3.0000000000000000        1.0000000000000000        2.5000000000000000
 pair_coeff           16          16   3.0000000000000000        1.0000000000000000        2.5000000000000000
 pair_coeff           17          17   3.0000000000000000        1.0000000000000000        2.5000000000000000
 pair_coeff           18          18   3.0000000000000000        1.0000000000000000        2.5000000000000000
 pair_coeff           19          19   3.0000000000000000        1.0000000000000000        2.5000000000000000
 pair_coeff           20          20   3.0000000000000000        1.0000000000000000        2.5000000000000000
 pair_coeff           21          21   3.0000000000000000        1.0000000000000000        2.5000000000000000
 pair_coeff           22          22   3.0000000000000000        1.0000000000000000        2.5000000000000000
 pair_coeff           23          23   3.0000000000000000        1.0000000000000000        2.5000000000000000
 pair_coeff           24          24   3.0000000000000000        1.0000000000000000        2.5000000000000000
 pair_coeff           25          25   3.0000000000000000        1.0000000000000000        2.5000000000000000
 pair_coeff           26          26   3.0000000000000000        1.0000000000000000        2.5000000000000000
 pair_coeff           27          27   3.0000000000000000        1.0000000000000000        2.5000000000000000
 pair_coeff           28          28   3.0000000000000000        1.0000000000000000        2.5000000000000000
 pair_coeff           29          29   3.0000000000000000        1.0000000000000000        2.5000000000000000
 pair_coeff           30          30   3.0000000000000000        1.0000000000000000        2.5000000000000000
 pair_coeff           31          31   3.0000000000000000        1.0000000000000000        2.5000000000000000
 pair_coeff           32          32   3.0000000000000000        1.0000000000000000        2.5000000000000000
 pair_coeff           33          33   3.0000000000000000        1.0000000000000000        2.5000000000000000
 pair_coeff           34          34   3.0000000000000000        1.0000000000000000        2.5000000000000000
 pair_coeff           35          35   3.0000000000000000        1.0000000000000000        2.5000000000000000
 pair_coeff           36          36   3.0000000000000000        1.0000000000000000        2.5000000000000000
 pair_coeff           37          37   3.0000000000000000        1.0000000000000000        2.5000000000000000
 pair_coeff           38          38   3.0000000000000000        1.0000000000000000        2.5000000000000000
 pair_coeff           39          39   3.0000000000000000        1.0000000000000000        2.5000000000000000
 pair_coeff           40          40   3.0000000000000000        1.0000000000000000        2.5000000000000000
 pair_coeff           41          41   3.0000000000000000        1.0000000000000000        2.5000000000000000
 pair_coeff           42          42   3.0000000000000000        1.0000000000000000        2.5000000000000000
 pair_coeff           43          43   3.0000000000000000        1.0000000000000000        2.5000000000000000
 pair_coeff           44          44   3.0000000000000000        1.0000000000000000        2.5000000000000000
 pair_coeff           45          45   3.0000000000000000        1.0000000000000000        2.5000000000000000
 pair_coeff           46          46   3.0000000000000000        1.0000000000000000        2.5000000000000000
 pair_coeff           47          47   3.0000000000000000        1.0000000000000000        2.5000000000000000
 pair_coeff           48          48   3.0000000000000000        1.0000000000000000        2.5000000000000000
 pair_coeff           49          49   3.0000000000000000        1.0000000000000000        2.5000000000000000
 pair_coeff           50          50   3.0000000000000000        1.0000000000000000        2.5000000000000000
 pair_coeff           51          51   3.0000000000000000        1.0000000000000000        2.5000000000000000
 pair_coeff           52          52   3.0000000000000000        1.0000000000000000        2.5000000000000000
 pair_coeff           53          53   3.0000000000000000        1.0000000000000000        2.5000000000000000
 pair_coeff           54          54   3.0000000000000000        1.0000000000000000        2.5000000000000000
 pair_coeff           55          55   3.0000000000000000        1.0000000000000000        2.5000000000000000
 pair_coeff           56          56   3.0000000000000000        1.0000000000000000        2.5000000000000000
 pair_coeff           57          57   3.0000000000000000        1.0000000000000000        2.5000000000000000
 pair_coeff           58          58   3.0000000000000000        1.0000000000000000        2.5000000000000000
 pair_coeff           59          59   3.0000000000000000        1.0000000000000000        2.5000000000000000
 pair_coeff           60          60   3.0000000000000000        1.0000000000000000        2.5000000000000000
 pair_coeff           61          61   3.0000000000000000        1.0000000000000000        2.5000000000000000
 pair_coeff           62          62   3.0000000000000000        1.0000000000000000        2.5000000000000000
 pair_coeff           63          63   3.0000000000000000        1.0000000000000000        2.5000000000000000
 pair_coeff           64          64   3.0000000000000000        1.0000000000000000        2.5000000000000000
 pair_coeff           65          65   3.0000000000000000        1.0000000000000000        2.5000000000000000
 pair_coeff           66          66   3.0000000000000000        1.0000000000000000        2.5000000000000000
 pair_coeff           67          67   3.0000000000000000        1.0000000000000000        2.5000000000000000
 pair_coeff           68          68   3.0000000000000000        1.0000000000000000        2.5000000000000000
 pair_coeff           69          69   3.0000000000000000        1.0000000000000000        2.5000000000000000
 pair_coeff           70          70   3.0000000000000000        1.0000000000000000        2.5000000000000000
 pair_coeff           71          71   3.0000000000000000        1.0000000000000000        2.5000000000000000
 pair_coeff           72          72   3.0000000000000000        1.0000000000000000        2.5000000000000000
 pair_coeff           73          73   3.0000000000000000        1.0000000000000000        2.5000000000000000
 pair_coeff           74          74   3.0000000000000000        1.0000000000000000        2.5000000000000000
 pair_coeff           75          75   3.0000000000000000        1.0000000000000000        2.5000000000000000
 pair_coeff           76          76   3.0000000000000000        1.0000000000000000        2.5000000000000000
 pair_coeff           77          77   3.0000000000000000        1.0000000000000000        2.5000000000000000
 pair_coeff           78          78   3.0000000000000000        1.0000000000000000        2.5000000000000000
 pair_coeff           79          79   3.0000000000000000        1.0000000000000000        2.5000000000000000
 pair_coeff           80          80   3.0000000000000000        1.0000000000000000        2.5000000000000000
 pair_coeff           81          81   3.0000000000000000        1.0000000000000000        2.5000000000000000
 pair_coeff           82          82   3.0000000000000000        1.0000000000000000        2.5000000000000000
 pair_coeff           83          83   3.0000000000000000        1.0000000000000000        2.5000000000000000
 pair_coeff           84          84   3.0000000000000000        1.0000000000000000        2.5000000000000000
 pair_coeff           85          85   3.0000000000000000        1.0000000000000000        2.5000000000000000
 pair_coeff           86          86   3.0000000000000000        1.0000000000000000        2.5000000000000000
 pair_coeff           87          87   3.0000000000000000        1.0000000000000000        2.5000000000000000
 pair_coeff           88          88   3.0000000000000000        1.0000000000000000        2.5000000000000000
 pair_coeff           89          89   3.0000000000000000        1.0000000000000000        2.5000000000000000
 pair_coeff           90          90   3.0000000000000000        1.0000000000000000        2.5000000000000000
 pair_coeff           91          91   3.0000000000000000        1.0000000000000000        2.5000000000000000
 pair_coeff           92          92   3.0000000000000000        1.0000000000000000        2.5000000000000000
 pair_coeff           93          93   3.0000000000000000        1.0000000000000000        2.5000000000000000
 pair_coeff           94          94   3.0000000000000000        1.0000000000000000        2.5000000000000000
 pair_coeff           95          95   3.0000000000000000        1.0000000000000000        2.5000000000000000
 pair_coeff           96          96   3.0000000000000000        1.0000000000000000        2.5000000000000000
 pair_coeff           97          97   3.0000000000000000        1.0000000000000000        2.5000000000000000
 pair_coeff           98          98   3.0000000000000000        1.0000000000000000        2.5000000000000000
 pair_coeff           99          99   3.0000000000000000        1.0000000000000000        2.5000000000000000
 pair_coeff          100         100   3.0000000000000000        1.0000000000000000        2.5000000000000000
 pair_coeff          101         101   3.0000000000000000        1.0000000000000000        2.5000000000000000
 pair_coeff          102         102   3.0000000000000000        1.0000000000000000        2.5000000000000000
 pair_coeff          103         103   3.0000000000000000        1.0000000000000000        2.5000000000000000
 pair_coeff          104         104   3.0000000000000000        1.0000000000000000        2.5000000000000000
 pair_coeff          105         105   3.0000000000000000        1.0000000000000000        2.5000000000000000
 pair_coeff          106         106   3.0000000000000000        1.0000000000000000        2.5000000000000000
 pair_coeff          107         107   3.0000000000000000        1.0000000000000000        2.5000000000000000
 pair_coeff          108         108   3.0000000000000000        1.0000000000000000        2.5000000000000000
 pair_coeff          109         109   3.0000000000000000        1.0000000000000000        2.5000000000000000
 pair_coeff          110         110   3.0000000000000000        1.0000000000000000        2.5000000000000000
 pair_coeff          111         111   3.0000000000000000        1.0000000000000000        2.5000000000000000
 pair_coeff          112         112   3.0000000000000000        1.0000000000000000        2.5000000000000000
 pair_coeff          113         113   3.0000000000000000        1.0000000000000000        2.5000000000000000
 pair_coeff          114         114   3.0000000000000000        1.0000000000000000        2.5000000000000000
 pair_coeff          115         115   3.0000000000000000        1.0000000000000000        2.5000000000000000
 pair_coeff          116         116   3.0000000000000000        1.0000000000000000        2.5000000000000000
 pair_coeff          117         117   3.0000000000000000        1.0000000000000000        2.5000000000000000
 pair_coeff          118         118   3.0000000000000000        1.0000000000000000        2.5000000000000000
 pair_coeff          119         119   3.0000000000000000        1.0000000000000000        2.5000000000000000
 pair_coeff          120         120   3.0000000000000000        1.0000000000000000        2.5000000000000000
 pair_coeff          121         121   3.0000000000000000        1.0000000000000000        2.5000000000000000
 pair_coeff          122         122   3.0000000000000000        1.0000000000000000        2.5000000000000000
 pair_coeff          123         123   3.0000000000000000        1.0000000000000000        2.5000000000000000
 pair_coeff          124         124   3.0000000000000000        1.0000000000000000        2.5000000000000000
 pair_coeff          125         125   3.0000000000000000        1.0000000000000000        2.5000000000000000
 pair_coeff          126         126   3.0000000000000000        1.0000000000000000        2.5000000000000000
 pair_coeff          127         127   3.0000000000000000        1.0000000000000000        2.5000000000000000
 pair_coeff          128         128   3.0000000000000000        1.0000000000000000        2.5000000000000000
 pair_coeff          129         129   3.0000000000000000        1.0000000000000000        2.5000000000000000
 pair_coeff          130         130   3.0000000000000000        1.0000000000000000        2.5000000000000000
 pair_coeff          131         131   3.0000000000000000        1.0000000000000000        2.5000000000000000
 pair_coeff          132         132   3.0000000000000000        1.0000000000000000        2.5000000000000000
 pair_coeff          133         133   3.0000000000000000        1.0000000000000000        2.5000000000000000
 pair_coeff          134         134   3.0000000000000000        1.0000000000000000        2.5000000000000000
 pair_coeff          135         135   3.0000000000000000        1.0000000000000000        2.5000000000000000
 pair_coeff          136         136   3.0000000000000000        1.0000000000000000        2.5000000000000000
 pair_coeff          137         137   3.0000000000000000        1.0000000000000000        2.5000000000000000
 pair_coeff          138         138   3.0000000000000000        1.0000000000000000        2.5000000000000000
 pair_coeff          139         139   3.0000000000000000        1.0000000000000000        2.5000000000000000
 pair_coeff          140         140   3.0000000000000000        1.0000000000000000        2.5000000000000000
 pair_coeff          141         141   3.0000000000000000        1.0000000000000000        2.5000000000000000
 pair_coeff          142         142   3.0000000000000000        1.0000000000000000        2.5000000000000000
 pair_coeff          143         143   3.0000000000000000        1.0000000000000000        2.5000000000000000
 pair_coeff          144         144   3.0000000000000000        1.0000000000000000        2.5000000000000000
 pair_coeff          145         145   3.0000000000000000        1.0000000000000000        2.5000000000000000
 pair_coeff          146         146   3.0000000000000000        1.0000000000000000        2.5000000000000000
 pair_coeff          147         147   3.0000000000000000        1.0000000000000000        2.5000000000000000
 pair_coeff          148         148   3.0000000000000000        1.0000000000000000        2.5000000000000000
 pair_coeff          149         149   3.0000000000000000        1.0000000000000000        2.5000000000000000
 pair_coeff          150         150   3.0000000000000000        1.0000000000000000        2.5000000000000000
 pair_coeff          151         151   3.0000000000000000        1.0000000000000000        2.5000000000000000
 pair_coeff          152         152   3.0000000000000000        1.0000000000000000        2.5000000000000000
 pair_coeff          153         153   3.0000000000000000        1.0000000000000000        2.5000000000000000
 pair_coeff          154         154   3.0000000000000000        1.0000000000000000        2.5000000000000000
 pair_coeff          155         155   3.0000000000000000        1.0000000000000000        2.5000000000000000
 pair_coeff          156         156   3.0000000000000000        1.0000000000000000        2.5000000000000000
 pair_coeff          157         157   3.0000000000000000        1.0000000000000000        2.5000000000000000
 pair_coeff          158         158   3.0000000000000000        1.0000000000000000        2.5000000000000000
 pair_coeff          159         159   3.0000000000000000        1.0000000000000000        2.5000000000000000
 pair_coeff          160         160   3.0000000000000000        1.0000000000000000        2.5000000000000000
 pair_coeff          161         161   3.0000000000000000        1.0000000000000000        2.5000000000000000
 pair_coeff          162         162   3.0000000000000000        1.0000000000000000        2.5000000000000000
 pair_coeff          163         163   3.0000000000000000        1.0000000000000000        2.5000000000000000
 pair_coeff          164         164   3.0000000000000000        1.0000000000000000        2.5000000000000000
 pair_coeff          165         165   3.0000000000000000        1.0000000000000000        2.5000000000000000
 pair_coeff          166         166   3.0000000000000000        1.0000000000000000        2.5000000000000000
 pair_coeff          167         167   3.0000000000000000        1.0000000000000000        2.5000000000000000
 pair_coeff          168         168   3.0000000000000000        1.0000000000000000        2.5000000000000000
 pair_coeff          169         169   3.0000000000000000        1.0000000000000000        2.5000000000000000
 pair_coeff          170         170   3.0000000000000000        1.0000000000000000        2.5000000000000000
 pair_coeff          171         171   3.0000000000000000        1.0000000000000000        2.5000000000000000
 pair_coeff          172         172   3.0000000000000000        1.0000000000000000        2.5000000000000000
 pair_coeff          173         173   3.0000000000000000        1.0000000000000000        2.5000000000000000
 pair_coeff          174         174   3.0000000000000000        1.0000000000000000        2.5000000000000000
 pair_coeff          175         175   3.0000000000000000        1.0000000000000000        2.5000000000000000
 pair_coeff          176         176   3.0000000000000000        1.0000000000000000        2.5000000000000000
 pair_coeff          177         177   3.0000000000000000        1.0000000000000000        2.5000000000000000
 pair_coeff          178         178   3.0000000000000000        1.0000000000000000        2.5000000000000000
 pair_coeff          179         179   3.0000000000000000        1.0000000000000000        2.5000000000000000
 pair_coeff          180         180   3.0000000000000000        1.0000000000000000        2.5000000000000000
 pair_coeff          181         181   3.0000000000000000        1.0000000000000000        2.5000000000000000
 pair_coeff          182         182   3.0000000000000000        1.0000000000000000        2.5000000000000000
 pair_coeff          183         183   3.0000000000000000        1.0000000000000000        2.5000000000000000
 pair_coeff          184         184   3.0000000000000000        1.0000000000000000        2.5000000000000000
 pair_coeff          185         185   3.0000000000000000        1.0000000000000000        2.5000000000000000
 pair_coeff          186         186   3.0000000000000000        1.0000000000000000        2.5000000000000000
 pair_coeff          187         187   3.0000000000000000        1.0000000000000000        2.5000000000000000
 pair_coeff          188         188   3.0000000000000000        1.0000000000000000        2.5000000000000000
 pair_coeff          189         189   3.0000000000000000        1.0000000000000000        2.5000000000000000
 pair_coeff          190         190   3.0000000000000000        1.0000000000000000        2.5000000000000000
 pair_coeff          191         191   3.0000000000000000        1.0000000000000000        2.5000000000000000
 pair_coeff          192         192   3.0000000000000000        1.0000000000000000        2.5000000000000000
 pair_coeff          193         193   3.0000000000000000        1.0000000000000000        2.5000000000000000
 pair_coeff          194         194   3.0000000000000000        1.0000000000000000        2.5000000000000000
 pair_coeff          195         195   3.0000000000000000        1.0000000000000000        2.5000000000000000
 pair_coeff          196         196   3.0000000000000000        1.0000000000000000        2.5000000000000000
 pair_coeff          197         197   3.0000000000000000        1.0000000000000000        2.5000000000000000
 pair_coeff          198         198   3.0000000000000000        1.0000000000000000        2.5000000000000000
 pair_coeff          199         199   3.0000000000000000        1.0000000000000000        2.5000000000000000
 pair_coeff          200         200   3.0000000000000000        1.0000000000000000        2.5000000000000000

###################################################################
# Pair interaction between bonded atoms
#
# Fene potential + Lennard Jones 12-6:
#
#  E= - 0.5 K R0^2 ln[ 1- (r/R0)^2]
#     + 4epsilon[ (sigma/r)^12 - (sigma/r)^6] + epsilon
#

bond_style   fene

#
# For style fene, specify:
#   * bond type
#   * K (energy/distance^2)
#   * R0 (distance)
#   * epsilon (energy)  (LJ component)
#   * sigma (distance)  (LJ component)
#

special_bonds fene #<=== I M P O R T A N T (new command)

bond_coeff   1   30.0   1.6   1.0   1.0

###################################################

###
# Set up fixes
###

fix 1 all   nve   ###NVE ensemble
fix 2 all   langevin   1.0 1.0   1.0  69   ###Langevin integrator Tstart Tstop 1/friction rndseed

##### Sample thermodynamic info  (temperature, energy, pressure, etc.) #####
thermo 10000
thermo_style   custom   step  temp  epair  emol  press pxx pyy pzz  vol
############################################################################

###
# set timestep of integrator
###
timestep 0.01

###
# run integration for a number of steps
###
run 1000000
  update every 1 steps, delay 1 steps, check yes
Step Temp E_pair E_mol Press Pxx Pyy Pzz Volume
1000    1.0293545 2.1256024e-06     27.09821 -0.0078357705 -0.0083285011 -0.0089448806 -0.0062339296      1000000
Averages over the last 51 of 102 rows, steps 510000 to 1001000:
Temp E_pair E_mol Press Pxx Pyy Pzz Volume
1.00672 -1.23155 20.7964 4.56282e-05 5.10829e-05 8.20931e-05 3.70856e-06 1e+06
Loop time of 58.4995 on 1 procs for 1000000 steps with 400 atoms

include pair.unzipping
 pair_coeff            1           1   1.3999999999999999        1.0000000000000000        2.5000000000000000
 pair_coeff            2           2   1.3999999999999999        1.0000000000000000        2.5000000000000000
 pair_coeff            3           3   1.3999999999999999        1.0000000000000000        2.5000000000000000
 pair_coeff            4           4   1.3999999999999999        1.0000000000000000        2.5000000000000000
 pair_coeff            5           5   1.3999999999999999        1.0000000000000000        2.5000000000000000
 pair_coeff            6           6   1.3999999999999999        1.0000000000000000        2.5000000000000000
 pair_coeff            7           7   1.3999999999999999        1.0000000000000000        2.5000000000000000
 pair_coeff            8           8   1.3999999999999999        1.0000000000000000        2.5000000000000000
 pair_coeff            9           9   1.3999999999999999        1.0000000000000000        2.5000000000000000
 pair_coeff           10          10   1.3999999999999999        1.0000000000000000        2.5000000000000000
 pair_coeff           11          11   1.3999999999999999        1.0000000000000000        2.5000000000000000
 pair_coeff           12          12   1.3999999999999999        1.0000000000000000        2.5000000000000000
 pair_coeff           13          13   1.3999999999999999        1.0000000000000000        2.5000000000000000
 pair_coeff           14          14   1.3999999999999999        1.0000000000000000        2.5000000000000000
 pair_coeff           15          15   1.3999999999999999        1.0000000000000000        2.5000000000000000
 pair_coeff           16          16   1.3999999999999999        1.0000000000000000        2.5000000000000000
 pair_coeff           17          17   1.3999999999999999        1.0000000000000000        2.5000000000000000
 pair_coeff           18          18   1.3999999999999999        1.0000000000000000        2.5000000000000000
 pair_coeff           19          19   1.3999999999999999        1.0000000000000000        2.5000000000000000
 pair_coeff           20          20   1.3999999999999999        1.0000000000000000        2.5000000000000000
 pair_coeff           21          21   1.3999999999999999        1.0000000000000000        2.5000000000000000
 pair_coeff           22          22   1.3999999999999999        1.0000000000000000        2.5000000000000000
 pair_coeff           23          23   1.3999999999999999        1.0000000000000000        2.5000000000000000
 pair_coeff           24          24   1.3999999999999999        1.0000000000000000        2.5000000000000000
 pair_coeff           25          25   1.3999999999999999        1.0000000000000000        2.5000000000000000
 pair_coeff           26          26   1.3999999999999999        1.0000000000000000        2.5000000000000000
 pair_coeff           27          27   1.3999999999999999        1.0000000000000000        2.5000000000000000
 pair_coeff           28          28   1.3999999999999999        1.0000000000000000        2.5000000000000000
 pair_coeff           29          29   1.3999999999999999        1.0000000000000000        2.5000000000000000
 pair_coeff           30          30   1.3999999999999999        1.0000000000000000        2.5000000000000000
 pair_coeff           31          31   1.3999999999999999        1.0000000000000000        2.5000000000000000
 pair_coeff           32          32   1.3999999999999999        1.0000000000000000        2.5000000000000000
 pair_coeff           33          33   1.3999999999999999        1.0000000000000000        2.5000000000000000
 pair_coeff           34          34   1.3999999999999999        1.0000000000000000        2.5000000000000000
 pair_coeff           35          35   1.3999999999999999        1.0000000000000000        2.5000000000000000
 pair_coeff           36          36   1.3999999999999999        1.0000000000000000        2.5000000000000000
 pair_coeff           37          37   1.3999999999999999        1.0000000000000000        2.5000000000000000
 pair_coeff           38          38   1.3999999999999999        1.0000000000000000        2.5000000000000000
 pair_coeff           39          39   1.3999999999999999        1.0000000000000000        2.5000000000000000
 pair_coeff           40          40   1.3999999999999999        1.0000000000000000        2.5000000000000000
 pair_coeff           41          41   1.3999999999999999        1.0000000000000000        2.5000000000000000
 pair_coeff           42          42   1.3999999999999999        1.0000000000000000        2.5000000000000000
 pair_coeff           43          43   1.3999999999999999        1.0000000000000000        2.5000000000000000
 pair_coeff           44          44   1.3999999999999999        1.0000000000000000        2.5000000000000000
 pair_coeff           45          45   1.3999999999999999        1.0000000000000000        2.5000000000000000
 pair_coeff           46          46   1.3999999999999999        1.0000000000000000        2.5000000000000000
 pair_coeff           47          47   1.3999999999999999        1.0000000000000000        2.5000000000000000
 pair_coeff           48          48   1.3999999999999999        1.0000000000000000        2.5000000000000000
 pair_coeff           49          49   1.3999999999999999        1.0000000000000000        2.5000000000000000
 pair_coeff           50          50   1.3999999999999999        1.0000000000000000        2.5000000000000000
 pair_coeff           51          51   1.3999999999999999        1.0000000000000000        2.5000000000000000
 pair_coeff           52          52   1.3999999999999999        1.0000000000000000        2.5000000000000000
 pair_coeff           53          53   1.3999999999999999        1.0000000000000000        2.5000000000000000
 pair_coeff           54          54   1.3999999999999999        1.0000000000000000        2.5000000000000000
 pair_coeff           55          55   1.3999999999999999        1.0000000000000000        2.5000000000000000
 pair_coeff           56          56   1.3999999999999999        1.0000000000000000        2.5000000000000000
 pair_coeff           57          57   1.3999999999999999        1.0000000000000000        2.5000000000000000
 pair_coeff           58          58   1.3999999999999999        1.0000000000000000        2.5000000000000000
 pair_coeff           59          59   1.3999999999999999        1.0000000000000000        2.5000000000000000
 pair_coeff           60          60   1.3999999999999999        1.0000000000000000        2.5000000000000000
 pair_coeff           61          61   1.3999999999999999        1.0000000000000000        2.5000000000000000
 pair_coeff           62          62   1.3999999999999999        1.0000000000000000        2.5000000000000000
 pair_coeff           63          63   1.3999999999999999        1.0000000000000000        2.5000000000000000
 pair_coeff           64          64   1.3999999999999999        1.0000000000000000        2.5000000000000000
 pair_coeff           65          65   1.3999999999999999        1.0000000000000000        2.5000000000000000
 pair_coeff           66          66   1.3999999999999999        1.0000000000000000        2.5000000000000000
 pair_coeff           67          67   1.3999999999999999        1.0000000000000000        2.5000000000000000
 pair_coeff           68          68   1.3999999999999999        1.0000000000000000        2.5000000000000000
 pair_coeff           69          69   1.3999999999999999        1.0000000000000000        2.5000000000000000
 pair_coeff           70          70   1.3999999999999999        1.0000000000000000        2.5000000000000000
 pair_coeff           71          71   1.3999999999999999        1.0000000000000000        2.5000000000000000
 pair_coeff           72          72   1.3999999999999999        1.0000000000000000        2.5000000000000000
 pair_coeff           73          73   1.3999999999999999        1.0000000000000000        2.5000000000000000
 pair_coeff           74          74   1.3999999999999999        1.0000000000000000        2.5000000000000000
 pair_coeff           75          75   1.3999999999999999        1.0000000000000000        2.5000000000000000
 pair_coeff           76          76   1.3999999999999999        1.0000000000000000        2.5000000000000000
 pair_coeff           77          77   1.3999999999999999        1.0000000000000000        2.5000000000000000
 pair_coeff           78          78   1.3999999999999999        1.0000000000000000        2.5000000000000000
 pair_coeff           79          79   1.3999999999999999        1.0000000000000000        2.5000000000000000
 pair_coeff           80          80   1.3999999999999999        1.0000000000000000        2.5000000000000000
 pair_coeff           81          81   1.3999999999999999        1.0000000000000000        2.5000000000000000
 pair_coeff           82          82   1.3999999999999999        1.0000000000000000        2.5000000000000000
 pair_coeff           83          83   1.3999999999999999        1.0000000000000000        2.5000000000000000
 pair_coeff           84          84   1.3999999999999999        1.0000000000000000        2.5000000000000000
 pair_coeff           85          85   1.3999999999999999        1.0000000000000000        2.5000000000000000
 pair_coeff           86          86   1.3999999999999999        1.0000000000000000        2.5000000000000000
 pair_coeff           87          87   1.3999999999999999        1.0000000000000000        2.5000000000000000
 pair_coeff           88          88   1.3999999999999999        1.0000000000000000        2.5000000000000000
 pair_coeff           89          89   1.3999999999999999        1.0000000000000000        2.5000000000000000
 pair_coeff           90          90   1.3999999999999999        1.0000000000000000        2.5000000000000000
 pair_coeff           91          91   1.3999999999999999        1.0000000000000000        2.5000000000000000
 pair_coeff           92          92   1.3999999999999999        1.0000000000000000        2.5000000000000000
 pair_coeff           93          93   1.3999999999999999        1.0000000000000000        2.5000000000000000
 pair_coeff           94          94   1.3999999999999999        1.0000000000000000        2.5000000000000000
 pair_coeff           95          95   1.3999999999999999        1.0000000000000000        2.5000000000000000
 pair_coeff           96          96   1.3999999999999999        1.0000000000000000        2.5000000000000000
 pair_coeff           97          97   1.3999999999999999        1.0000000000000000        2.5000000000000000
 pair_coeff           98          98   1.3999999999999999        1.0000000000000000        2.5000000000000000
 pair_coeff           99          99   1.3999999999999999        1.0000000000000000        2.5000000000000000
 pair_coeff          100         100   1.3999999999999999        1.0000000000000000        2.5000000000000000
 pair_coeff          101         101   1.3999999999999999        1.0000000000000000        2.5000000000000000
 pair_coeff          102         102   1.3999999999999999        1.0000000000000000        2.5000000000000000
 pair_coeff          103         103   1.3999999999999999        1.0000000000000000        2.5000000000000000
 pair_coeff          104         104   1.3999999999999999        1.0000000000000000        2.5000000000000000
 pair_coeff          105         105   1.3999999999999999        1.0000000000000000        2.5000000000000000
 pair_coeff          106         106   1.3999999999999999        1.0000000000000000        2.5000000000000000
 pair_coeff          107         107   1.3999999999999999        1.0000000000000000        2.5000000000000000
 pair_coeff          108         108   1.3999999999999999        1.0000000000000000        2.5000000000000000
 pair_coeff          109         109   1.3999999999999999        1.0000000000000000        2.5000000000000000
 pair_coeff          110         110   1.3999999999999999        1.0000000000000000        2.5000000000000000
 pair_coeff          111         111   1.3999999999999999        1.0000000000000000        2.5000000000000000
 pair_coeff          112         112   1.3999999999999999        1.0000000000000000        2.5000000000000000
 pair_coeff          113         113   1.3999999999999999        1.0000000000000000        2.5000000000000000
 pair_coeff          114         114   1.3999999999999999        1.0000000000000000        2.5000000000000000
 pair_coeff          115         115   1.3999999999999999        1.0000000000000000        2.5000000000000000
 pair_coeff          116         116   1.3999999999999999        1.0000000000000000        2.5000000000000000
 pair_coeff          117         117   1.3999999999999999        1.0000000000000000        2.5000000000000000
 pair_coeff          118         118   1.3999999999999999        1.0000000000000000        2.5000000000000000
 pair_coeff          119         119   1.3999999999999999        1.0000000000000000        2.5000000000000000
 pair_coeff          120         120   1.3999999999999999        1.0000000000000000        2.5000000000000000
 pair_coeff          121         121   1.3999999999999999        1.0000000000000000        2.5000000000000000
 pair_coeff          122         122   1.3999999999999999        1.0000000000000000        2.5000000000000000
 pair_coeff          123         123   1.3999999999999999        1.0000000000000000        2.5000000000000000
 pair_coeff          124         124   1.3999999999999999        1.0000000000000000        2.5000000000000000
 pair_coeff          125         125   1.3999999999999999        1.0000000000000000        2.5000000000000000
 pair_coeff          126         126   1.3999999999999999        1.0000000000000000        2.5000000000000000
 pair_coeff          127         127   1.3999999999999999        1.0000000000000000        2.5000000000000000
 pair_coeff          128         128   1.3999999999999999        1.0000000000000000        2.5000000000000000
 pair_coeff          129         129   1.3999999999999999        1.0000000000000000        2.5000000000000000
 pair_coeff          130         130   1.3999999999999999        1.0000000000000000        2.5000000000000000
 pair_coeff          131         131   1.3999999999999999        1.0000000000000000        2.5000000000000000
 pair_coeff          132         132   1.3999999999999999        1.0000000000000000        2.5000000000000000
 pair_coeff          133         133   1.3999999999999999        1.0000000000000000        2.5000000000000000
 pair_coeff          134         134   1.3999999999999999        1.0000000000000000        2.5000000000000000
 pair_coeff          135         135   1.3999999999999999        1.0000000000000000        2.5000000000000000
 pair_coeff          136         136   1.3999999999999999        1.0000000000000000        2.5000000000000000
 pair_coeff          137         137   1.3999999999999999        1.0000000000000000        2.5000000000000000
 pair_coeff          138         138   1.3999999999999999        1.0000000000000000        2.5000000000000000
 pair_coeff          139         139   1.3999999999999999        1.0000000000000000        2.5000000000000000
 pair_coeff          140         140   1.3999999999999999        1.0000000000000000        2.5000000000000000
 pair_coeff          141         141   1.3999999999999999        1.0000000000000000        2.5000000000000000
 pair_coeff          142         142   1.3999999999999999        1.0000000000000000        2.5000000000000000
 pair_coeff          143         143   1.3999999999999999        1.0000000000000000        2.5000000000000000
 pair_coeff          144         144   1.3999999999999999        1.0000000000000000        2.5000000000000000
 pair_coeff          145         145   1.3999999999999999        1.0000000000000000        2.5000000000000000
 pair_coeff          146         146   1.3999999999999999        1.0000000000000000        2.5000000000000000
 pair_coeff          147         147   1.3999999999999999        1.0000000000000000        2.5000000000000000
 pair_coeff          148         148   1.3999999999999999        1.0000000000000000        2.5000000000000000
 pair_coeff          149         149   1.3999999999999999        1.0000000000000000        2.5000000000000000
 pair_coeff          150         150   1.3999999999999999        1.0000000000000000        2.5000000000000000
 pair_coeff          151         151   1.3999999999999999        1.0000000000000000        2.5000000000000000
 pair_coeff          152         152   1.3999999999999999        1.0000000000000000        2.5000000000000000
 pair_coeff          153         153   1.3999999999999999        1.0000000000000000        2.5000000000000000
 pair_coeff          154         154   1.3999999999999999        1.0000000000000000        2.5000000000000000
 pair_coeff          155         155   1.3999999999999999        1.0000000000000000        2.5000000000000000
 pair_coeff          156         156   1.3999999999999999        1.0000000000000000        2.5000000000000000
 pair_coeff          157         157   1.3999999999999999        1.0000000000000000        2.5000000000000000
 pair_coeff          158         158   1.3999999999999999        1.0000000000000000        2.5000000000000000
 pair_coeff          159         159   1.3999999999999999        1.0000000000000000        2.5000000000000000
 pair_coeff          160         160   1.3999999999999999        1.0000000000000000        2.5000000000000000
 pair_coeff          161         161   1.3999999999999999        1.0000000000000000        2.5000000000000000
 pair_coeff          162         162   1.3999999999999999        1.0000000000000000        2.5000000000000000
 pair_coeff          163         163   1.3999999999999999        1.0000000000000000        2.5000000000000000
 pair_coeff          164         164   1.3999999999999999        1.0000000000000000        2.5000000000000000
 pair_coeff          165         165   1.3999999999999999        1.0000000000000000        2.5000000000000000
 pair_coeff          166         166   1.3999999999999999        1.0000000000000000        2.5000000000000000
 pair_coeff          167         167   1.3999999999999999        1.0000000000000000        2.5000000000000000
 pair_coeff          168         168   1.3999999999999999        1.0000000000000000        2.5000000000000000
 pair_coeff          169         169   1.3999999999999999        1.0000000000000000        2.5000000000000000
 pair_coeff          170         170   1.3999999999999999        1.0000000000000000        2.5000000000000000
 pair_coeff          171         171   1.3999999999999999        1.0000000000000000        2.5000000000000000
 pair_coeff          172         172   1.3999999999999999        1.0000000000000000        2.5000000000000000
 pair_coeff          173         173   1.3999999999999999        1.0000000000000000        2.5000000000000000
 pair_coeff          174         174   1.3999999999999999        1.0000000000000000        2.5000000000000000
 pair_coeff          175         175   1.3999999999999999        1.0000000000000000        2.5000000000000000
 pair_coeff          176         176   1.3999999999999999        1.0000000000000000        2.5000000000000000
 pair_coeff          177         177   1.3999999999999999        1.0000000000000000        2.5000000000000000
 pair_coeff          178         178   1.3999999999999999        1.0000000000000000        2.5000000000000000
 pair_coeff          179         179   1.3999999999999999        1.0000000000000000        2.5000000000000000
 pair_coeff          180         180   1.3999999999999999        1.0000000000000000        2.5000000000000000
 pair_coeff          181         181   1.3999999999999999        1.0000000000000000        2.5000000000000000
 pair_coeff          182         182   1.3999999999999999        1.0000000000000000        2.5000000000000000
 pair_coeff          183         183   1.3999999999999999        1.0000000000000000        2.5000000000000000
 pair_coeff          184         184   1.3999999999999999        1.0000000000000000        2.5000000000000000
 pair_coeff          185         185   1.3999999999999999        1.0000000000000000        2.5000000000000000
 pair_coeff          186         186   1.3999999999999999        1.0000000000000000        2.5000000000000000
 pair_coeff          187         187   1.3999999999999999        1.0000000000000000        2.5000000000000000
 pair_coeff          188         188   1.3999999999999999        1.0000000000000000        2.5000000000000000
 pair_coeff          189         189   1.3999999999999999        1.0000000000000000        2.5000000000000000
 pair_coeff          190         190   1.3999999999999999        1.0000000000000000        2.5000000000000000
 pair_coeff          191         191   1.3999999999999999        1.0000000000000000        2.5000000000000000
 pair_coeff          192         192   1.3999999999999999        1.0000000000000000        2.5000000000000000
 pair_coeff          193         193   1.3999999999999999        1.0000000000000000        2.5000000000000000
 pair_coeff          194         194   1.3999999999999999        1.0000000000000000        2.5000000000000000
 pair_coeff          195         195   1.3999999999999999        1.0000000000000000        2.5000000000000000
 pair_coeff          196         196   1.3999999999999999        1.0000000000000000        2.5000000000000000
 pair_coeff          197         197   1.3999999999999999        1.0000000000000000        2.5000000000000000
 pair_coeff          198         198   1.3999999999999999        1.0000000000000000        2.5000000000000000
 pair_coeff          199         199   1.3999999999999999        1.0000000000000000        2.5000000000000000
 pair_coeff          200         200   1.3999999999999999        1.0000000000000000        2.5000000000000000

run 3000000
Step Temp E_pair E_mol Press Pxx Pyy Pzz Volume
1001000    1.0009546  -0.57313896    20.802009 0.00031803773 0.00020005685 0.00055451077 0.00019954557      1000000
Averages over the last 151 of 302 rows, steps 2510000 to 4001000:
Temp E_pair E_mol Press Pxx Pyy Pzz Volume
1.00407 -0.421858 20.8597 4.39809e-06 3.00062e-05 -9.89696e-06 -6.91494e-06 1e+06
Loop time of 180.942 on 1 procs for 3000000 steps with 400 atoms
